/*--------------------------------*- C++ -*----------------------------------*\
| =========                 |                                                 |
| \\      /  F ield         | OpenFOAM: The Open Source CFD Toolbox           |
|  \\    /   O peration     | Version:  2512                                  |
|   \\  /    A nd           | Website:  www.openfoam.com                      |
|    \\/     M anipulation  |                                                 |
\*---------------------------------------------------------------------------*/
FoamFile
{
    version     2.0;
    format      ascii;
    arch        "LSB;label=32;scalar=64";
    class       featureEdgeMesh;
    location    "constant/triSurface";
    object      talon.eMesh;
}
// * * * * * * * * * * * * * * * * * * * * * * * * * * * * * * * * * * * * * //


// points:

5549
(
(0.164787 -0.608285 0.0785167)
(0.164745 -0.534353 0.0785115)
(0.164663 -0.559395 0.0785592)
(0.165176 -0.409142 0.0785006)
(0.164972 -0.509311 0.0785135)
(0.164788 -0.608285 0.0785169)
(0.165076 -0.298978 0.0785273)
(0.1651 -0.298978 0.0784946)
(0.164767 -0.616187 0.0785162)
(0.164692 -0.654326 0.078519)
(0.164789 0.55 0.0785187)
(0.164788 0.55 0.0785191)
(0.164788 0.55 0.0785195)
(0.164787 0.55 0.0785202)
(0.164788 0.55 0.078517)
(0.1651 0.240693 0.0784946)
(0.165076 0.240693 0.0785273)
(0.532595 0.196377 0.242838)
(0.53259 0.19656 0.242656)
(0.0964139 0.829326 0.10832)
(0.0925288 0.82994 0.109152)
(0.0924878 0.829935 0.109144)
(0.164661 0.702052 0.0781805)
(0.164229 0.704548 0.0779456)
(0.154737 0.749851 0.0803385)
(-0.298897 -0.00977926 -0.0702446)
(-0.454357 -0.00163196 -0.0702446)
(-0.298897 -0.0485052 -0.0702446)
(-0.454357 -0.0566525 -0.0702446)
(0.164734 -0.760334 0.0781779)
(0.164922 -0.759092 0.0783536)
(0.164229 -0.762833 0.0779456)
(0.154737 -0.808136 0.0803384)
(0.0964137 -0.88761 0.10832)
(0.532595 -0.254662 0.242838)
(0.53259 -0.254844 0.242656)
(0.165113 0.3759 0.0785097)
(0.165176 0.350858 0.0785006)
(0.164745 0.476068 0.0785115)
(0.164788 0.55 0.0785199)
(0.164669 0.526153 0.0785148)
(0.164663 0.501111 0.0785592)
(0.165108 0.363379 0.0784961)
(0.164972 0.451026 0.0785135)
(0.165176 0.240693 0.0785006)
(-0.0241069 0.0032765 -0.0347992)
(-0.0241069 -0.061561 -0.0347992)
(0.116822 -0.608285 0.0876727)
(0.116822 -0.608285 0.0783086)
(0.164773 -0.608285 0.0785258)
(0.164788 -0.608285 0.0785178)
(0.164789 -0.608285 0.0785178)
(0.164788 -0.608285 0.0785176)
(0.164788 -0.608285 0.0785177)
(0.164717 -0.608285 0.0785393)
(0.164789 -0.608285 0.078518)
(0.164789 -0.608285 0.0785182)
(0.164789 -0.608285 0.0785183)
(0.164789 -0.608285 0.0785184)
(0.164789 -0.608285 0.0785186)
(0.164788 -0.608285 0.0785198)
(0.164787 -0.608285 0.0785169)
(0.164789 -0.608285 0.0785187)
(0.164789 -0.608285 0.0785188)
(0.164788 -0.608285 0.0785189)
(0.164788 -0.608285 0.0785171)
(0.164788 -0.608285 0.0785173)
(0.164787 -0.608285 0.0785201)
(0.165145 -0.298978 0.0784952)
(0.16512 -0.298978 0.0785185)
(0.116822 -0.298978 0.0885006)
(0.116822 -0.298978 0.0790173)
(0.116822 -0.409142 0.0885006)
(0.116822 -0.409142 0.0790173)
(0.164648 -0.584437 0.0785158)
(0.164779 -0.509311 0.0785098)
(0.165145 -0.409142 0.0784952)
(0.165161 -0.409142 0.0785083)
(0.165131 -0.421663 0.0785107)
(0.16512 -0.409142 0.0785185)
(0.164784 -0.608285 0.0785221)
(0.164783 -0.608285 0.0785155)
(0.164779 -0.608285 0.078524)
(0.164763 -0.608285 0.0785287)
(0.164788 -0.608285 0.078519)
(0.165175 -0.0811237 0.0784994)
(0.165167 -0.0978838 0.0785015)
(0.164778 -0.610738 0.0785157)
(0.165058 -0.757849 0.0784992)
(0.16515 -0.757849 0.0784973)
(0.165108 -0.757849 0.078518)
(0.116822 0.55 0.0876727)
(0.116822 0.55 0.0783086)
(0.164774 0.55 0.0785256)
(0.164782 0.55 0.0785229)
(0.164784 0.55 0.0785157)
(0.164789 0.55 0.0785182)
(0.164789 0.55 0.0785186)
(0.164785 0.55 0.0785214)
(0.164788 0.55 0.0785173)
(0.164788 0.55 0.0785174)
(0.164788 0.55 0.0785177)
(0.164789 0.55 0.0785178)
(0.164788 0.55 0.0785189)
(0.164786 0.55 0.0785162)
(0.164789 0.55 0.0785188)
(0.116822 0.240693 0.0790173)
(0.116822 0.240693 0.0885006)
(0.165176 0.0228325 0.0785006)
(0.116822 0.350858 0.0885006)
(0.116822 0.350858 0.0790173)
(0.164771 0.552454 0.0785149)
(0.165062 0.699564 0.0784991)
(0.1651 0.699564 0.0785177)
(0.165097 0.699564 0.0785185)
(0.0964045 0.829327 0.108322)
(0.096414 0.829325 0.10832)
(0.0964132 0.829325 0.10832)
(0.0963904 0.829321 0.108323)
(0.0964143 0.829325 0.10832)
(0.0964142 0.829325 0.10832)
(0.0964141 0.829325 0.10832)
(0.0925982 0.829953 0.109143)
(0.0925693 0.829948 0.109147)
(0.0924649 0.829915 0.109157)
(0.385588 0.121736 0.171285)
(0.0924415 0.82992 0.109153)
(0.0964428 0.829295 0.108266)
(0.097096 0.82901 0.107882)
(0.0964583 0.8293 0.108287)
(0.154104 0.749871 0.080451)
(0.154054 0.749894 0.0803611)
(0.0964565 0.829302 0.108286)
(0.488165 0.00406405 0.0520036)
(0.488137 0.00489068 0.0510827)
(-0.281435 -0.0106944 -0.0592161)
(-0.463977 -0.00112781 -0.0503637)
(-0.0241069 0.0347517 -0.0347992)
(0.159 0.0281306 -0.04)
(-0.044708 0.0032765 -0.0534927)
(0.0351764 0.0032765 -0.0364831)
(-0.154349 0.0220019 0.0956222)
(-0.281435 -0.0475901 -0.0592161)
(0.159 -0.0864151 -0.04)
(-0.465422 -0.100037 -0.0156934)
(-0.462002 -0.0988546 -0.0206827)
(-0.154341 -0.0798339 0.0956734)
(-0.044708 -0.061561 -0.0534927)
(-0.463977 -0.0571567 -0.0503637)
(0.488165 -0.0623486 0.0520035)
(0.488137 -0.0631752 0.0510827)
(0.0351764 -0.061561 -0.0364831)
(-0.0241069 -0.0930362 -0.0347992)
(0.0924172 -0.888167 0.109157)
(0.097096 -0.887294 0.107882)
(0.0965902 -0.887502 0.108185)
(0.154054 -0.808179 0.0803611)
(0.154672 -0.808143 0.0803249)
(0.154104 -0.808156 0.080451)
(0.0963992 -0.887612 0.108323)
(0.0964125 -0.887609 0.10832)
(0.0964125 -0.88761 0.10832)
(0.385586 -0.180019 0.171281)
(0.407875 -0.21441 0.205197)
(0.165161 0.350858 0.0785083)
(0.165145 0.350858 0.0784952)
(0.164779 0.451026 0.0785098)
(0.16464 0.526153 0.0785582)
(0.164785 0.55 0.0785159)
(0.164788 0.55 0.0785169)
(0.164788 0.55 0.0785178)
(0.164675 0.55 0.0785149)
(0.164789 -0.608285 0.0785179)
(0.164789 -0.608285 0.0785181)
(0.164789 -0.608285 0.0785185)
(0.164789 0.55 0.0785181)
(0.164789 0.55 0.0785183)
(0.164789 0.55 0.0785184)
(0.164789 0.55 0.0785185)
(0.164788 0.55 0.0785175)
(0.164789 0.55 0.0785179)
(0.164789 0.55 0.078518)
(0.363302 0.0873665 0.137341)
(0.407877 0.156131 0.205192)
(-0.466034 -0.099866 -0.0156522)
(-0.462554 -0.0986939 -0.0206318)
(-0.463917 -0.100441 -0.015774)
(-0.460654 -0.0992338 -0.0207848)
(0.363301 -0.145652 0.13734)
(0.385582 -0.17995 0.171353)
(0.40789 -0.214481 0.205126)
(0.409378 -0.216403 0.207166)
(0.121045 -0.608285 0.0869314)
(0.164785 -0.608285 0.0785216)
(0.164782 -0.608285 0.0785229)
(0.164034 -0.608285 0.0786808)
(0.163964 -0.608285 0.0786992)
(0.16356 -0.608285 0.0785576)
(0.164179 -0.608285 0.0785382)
(0.164145 -0.608285 0.0786541)
(0.164294 -0.608285 0.0786212)
(0.163926 -0.608285 0.0787108)
(0.163881 -0.608285 0.078725)
(0.163836 -0.608285 0.07874)
(0.164788 -0.608285 0.0785175)
(0.152914 -0.608285 0.0784047)
(0.160536 -0.608285 0.0785264)
(0.162437 -0.608285 0.0785504)
(0.163339 -0.608285 0.0788447)
(0.161854 -0.608285 0.0791428)
(0.16371 -0.608285 0.0787684)
(0.164666 -0.608285 0.0785493)
(0.164634 -0.608285 0.0785163)
(0.164731 -0.608285 0.0785136)
(0.155921 -0.608285 0.0803865)
(0.152425 -0.608285 0.0810895)
(0.145965 -0.608285 0.0783564)
(0.149368 -0.608285 0.0816827)
(0.132103 -0.608285 0.0849341)
(0.163832 -0.608285 0.0787414)
(0.163803 -0.608285 0.0787484)
(0.164771 -0.608285 0.0785143)
(0.164781 -0.608285 0.0785153)
(0.164784 -0.608285 0.0785159)
(0.164788 -0.608285 0.0785195)
(0.164786 -0.608285 0.0785164)
(0.164788 -0.608285 0.0785191)
(0.164788 -0.608285 0.0785193)
(0.164786 -0.608285 0.0785208)
(0.162601 -0.298978 0.0789309)
(0.165023 -0.298978 0.078537)
(0.16438 -0.298978 0.0785307)
(0.162377 -0.298978 0.0786144)
(0.162122 -0.298978 0.0786178)
(0.160348 -0.298978 0.0793985)
(0.156012 -0.298978 0.078602)
(0.156149 -0.298978 0.0802883)
(0.165119 -0.298978 0.0784946)
(0.165023 -0.298978 0.0784964)
(0.137044 -0.298978 0.0843773)
(0.141774 -0.298978 0.0785776)
(0.12287 -0.298978 0.0788906)
(0.116822 -0.574415 0.0874407)
(0.116822 -0.557844 0.0788755)
(0.116822 -0.594939 0.0784704)
(0.116822 -0.42178 0.0791221)
(0.116822 -0.433137 0.0791919)
(0.116822 -0.430448 0.0880747)
(0.116822 -0.421784 0.0882342)
(0.116822 -0.411303 0.088452)
(0.116822 -0.446912 0.0792491)
(0.116822 -0.446929 0.0878163)
(0.116822 -0.43438 0.0880079)
(0.116822 -0.484302 0.0792782)
(0.116822 -0.496868 0.0792518)
(0.116822 -0.491713 0.0873731)
(0.116822 -0.484304 0.0874214)
(0.116822 -0.467428 0.0792859)
(0.116822 -0.470782 0.087535)
(0.116822 -0.459155 0.0792775)
(0.116822 -0.459433 0.0876558)
(0.116822 -0.450313 0.08777)
(0.116822 -0.559003 0.0873598)
(0.116822 -0.55 0.0873235)
(0.116822 -0.534026 0.0790714)
(0.116822 -0.533878 0.0872833)
(0.116822 -0.525714 0.0791252)
(0.116822 -0.526204 0.0872773)
(0.116822 -0.522068 0.0872779)
(0.116822 -0.521444 0.0872782)
(0.116822 -0.509124 0.0792092)
(0.116822 -0.509058 0.0872986)
(0.116822 -0.502858 0.087319)
(0.164942 -0.509311 0.0785048)
(0.164874 -0.509311 0.0785058)
(0.164649 -0.584437 0.0785567)
(0.164863 -0.509311 0.0785369)
(0.164655 -0.509311 0.0785709)
(0.164933 -0.509311 0.0785236)
(0.164598 -0.559395 0.0785186)
(0.165138 -0.421663 0.0784976)
(0.165088 -0.434184 0.0784975)
(0.165113 -0.434184 0.0785097)
(0.165066 -0.459227 0.078511)
(0.165089 -0.446705 0.0785104)
(0.165019 -0.484269 0.0785123)
(0.165042 -0.471748 0.0785117)
(0.164995 -0.49679 0.0785129)
(0.165141 -0.409142 0.078495)
(0.163951 -0.608285 0.0787031)
(0.163963 -0.608285 0.0786994)
(0.163903 -0.608285 0.0787179)
(0.163809 -0.608285 0.0787471)
(0.163831 -0.608285 0.0787417)
(0.163833 -0.608285 0.078741)
(0.163856 -0.608285 0.0787329)
(0.164021 -0.608285 0.0786843)
(0.164027 -0.608285 0.0786827)
(0.164188 -0.608285 0.0785378)
(0.16394 -0.608285 0.0785479)
(0.164143 -0.608285 0.0786547)
(0.164191 -0.608285 0.0786436)
(0.119354 -0.608285 0.0872294)
(0.163712 -0.608285 0.0787681)
(0.163434 -0.608285 0.0785591)
(0.163324 -0.608285 0.0788479)
(0.163135 -0.608285 0.0785596)
(0.161769 -0.608285 0.0791597)
(0.158925 -0.608285 0.0785071)
(0.155563 -0.608285 0.0804601)
(0.158073 -0.608285 0.0784941)
(0.148803 -0.608285 0.0817907)
(0.133663 -0.608285 0.078332)
(0.164423 -0.608285 0.0785949)
(0.164531 -0.608285 0.0785745)
(0.164713 -0.608285 0.0785139)
(0.164726 -0.608285 0.0785373)
(0.164767 -0.608285 0.0785141)
(0.164779 -0.608285 0.078515)
(0.150505 -0.608285 0.0783804)
(0.146428 -0.608285 0.0783581)
(0.133717 -0.608285 0.0846337)
(0.130642 -0.608285 0.0852039)
(0.133656 -0.298978 0.0850731)
(0.151998 -0.298978 0.0811919)
(0.164779 -0.298978 0.0785771)
(0.162892 -0.298978 0.0788781)
(0.124897 -0.298978 0.0788493)
(0.141672 -0.298978 0.0785785)
(0.154509 -0.298978 0.0785956)
(0.164296 -0.298978 0.0785357)
(0.164399 -0.298978 0.0785296)
(0.164492 -0.298978 0.078524)
(0.159634 -0.298978 0.0786081)
(0.163002 -0.298978 0.0785984)
(0.154937 -0.298978 0.0785979)
(0.15535 -0.298978 0.0785997)
(0.164576 -0.298978 0.0785191)
(0.164652 -0.298978 0.0785147)
(0.164749 -0.298978 0.0785092)
(0.16483 -0.298978 0.0785049)
(0.164916 -0.298978 0.0785007)
(0.164967 -0.298978 0.0784985)
(0.156296 -0.298978 0.080257)
(0.161401 -0.298978 0.0791724)
(0.163088 -0.298978 0.0785954)
(0.116822 -0.596118 0.0875837)
(0.116822 -0.431117 0.0880631)
(0.116822 -0.442135 0.0878858)
(0.116822 -0.451346 0.0792617)
(0.116822 -0.431108 0.079181)
(0.116822 -0.422552 0.0882193)
(0.116822 -0.425244 0.0791457)
(0.116822 -0.483132 0.0874299)
(0.116822 -0.496222 0.0873485)
(0.116822 -0.587869 0.0785542)
(0.116822 -0.583529 0.0786045)
(0.116822 -0.564139 0.0873844)
(0.116822 -0.452952 0.0877354)
(0.116822 -0.462374 0.0876223)
(0.116822 -0.474631 0.0792865)
(0.116822 -0.474647 0.0874991)
(0.116822 -0.47951 0.0792836)
(0.116822 -0.489652 0.0792691)
(0.116822 -0.496246 0.0792535)
(0.116822 -0.504279 0.0873137)
(0.116822 -0.506988 0.0873047)
(0.116822 -0.520405 0.0791554)
(0.116822 -0.572484 0.0787273)
(0.116822 -0.56147 0.0788406)
(0.116822 -0.547451 0.0873149)
(0.116822 -0.517762 0.0872815)
(0.116822 -0.520402 0.0872789)
(0.116822 -0.528698 0.0791068)
(0.116822 -0.525724 0.0872772)
(0.116822 -0.539576 0.0790312)
(0.116822 -0.539417 0.0872932)
(0.116822 -0.550499 0.0789423)
(0.116822 -0.552164 0.0789276)
(0.164861 -0.702002 0.0785453)
(0.164869 -0.703364 0.0785438)
(0.16476 -0.686338 0.0785642)
(0.164755 -0.685657 0.0785651)
(0.164706 -0.675952 0.0785948)
(0.164708 -0.676122 0.0785945)
(0.164646 -0.677823 0.0785208)
(0.164647 -0.677483 0.0785207)
(0.164651 -0.675269 0.0785206)
(0.164651 -0.675099 0.0785206)
(0.164652 -0.674929 0.0785205)
(0.164652 -0.674758 0.0785205)
(0.164655 -0.673226 0.0785204)
(0.164655 -0.673056 0.0785204)
(0.164634 -0.668971 0.078607)
(0.16463 -0.668631 0.0786076)
(0.164604 -0.666247 0.0786119)
(0.164601 -0.665907 0.0786125)
(0.164686 -0.646154 0.0785378)
(0.164686 -0.648878 0.0785372)
(0.164945 -0.746952 0.0785089)
(0.165019 -0.7524 0.0785034)
(0.165097 -0.7524 0.0785232)
(0.165109 -0.757849 0.0784976)
(0.164643 -0.679185 0.0785209)
(0.164644 -0.678845 0.0785208)
(-0.14022 -0.618967 0.0875287)
(-0.141186 -0.612595 0.0876004)
(-0.139273 -0.625232 0.0875464)
(0.164708 -0.646154 0.0785184)
(0.164714 -0.643429 0.0785182)
(0.164777 -0.610738 0.0785234)
(0.164757 -0.621635 0.0785165)
(0.164654 -0.673907 0.0785205)
(0.164654 -0.673737 0.0785205)
(0.164663 -0.668969 0.0785201)
(0.164664 -0.668629 0.0785201)
(0.164673 -0.663861 0.0785197)
(0.164671 -0.665224 0.0785198)
(0.164724 -0.637981 0.0785178)
(0.164735 -0.632532 0.0785174)
(0.164746 -0.627084 0.078517)
(0.164719 -0.640705 0.078518)
(0.164703 -0.648878 0.0785186)
(0.164687 -0.657051 0.0785192)
(0.164681 -0.659775 0.0785194)
(0.164676 -0.662499 0.0785196)
(0.164679 -0.661137 0.0785195)
(0.164668 -0.666586 0.0785199)
(0.164669 -0.665905 0.0785199)
(0.164663 -0.66931 0.0785201)
(0.164509 -0.657734 0.0786276)
(0.164501 -0.657053 0.0786288)
(0.164493 -0.656372 0.0786301)
(0.164517 -0.658415 0.0786263)
(0.164525 -0.659096 0.078625)
(0.164567 -0.662842 0.0786181)
(0.164571 -0.663182 0.0786175)
(0.164563 -0.662501 0.0786187)
(0.164532 -0.659777 0.0786237)
(0.16454 -0.660458 0.0786225)
(0.164548 -0.661139 0.0786212)
(0.164586 -0.664545 0.078615)
(0.164582 -0.664204 0.0786156)
(0.164589 -0.664885 0.0786144)
(0.164555 -0.66182 0.07862)
(0.164593 -0.665226 0.0786137)
(0.164597 -0.665566 0.0786131)
(0.164667 -0.666926 0.07852)
(0.164662 -0.669651 0.0785201)
(0.164608 -0.666588 0.0786113)
(0.164667 -0.667267 0.07852)
(0.164665 -0.668288 0.0785201)
(0.164626 -0.66829 0.0786082)
(0.164615 -0.667269 0.0786101)
(0.164619 -0.667609 0.0786095)
(0.164623 -0.66795 0.0786088)
(0.164559 -0.662161 0.0786193)
(0.164578 -0.663864 0.0786162)
(0.164661 -0.670332 0.0785202)
(0.164661 -0.669991 0.0785202)
(0.164637 -0.669312 0.0786064)
(0.164641 -0.669652 0.0786058)
(0.164645 -0.669993 0.0786052)
(0.164648 -0.670334 0.0786046)
(0.164574 -0.663523 0.0786168)
(0.164665 -0.667948 0.07852)
(0.164666 -0.667607 0.07852)
(0.164612 -0.666928 0.0786107)
(0.164485 -0.655691 0.0786314)
(0.164656 -0.672545 0.0785204)
(0.164657 -0.672375 0.0785204)
(0.164657 -0.672204 0.0785203)
(0.164658 -0.671694 0.0785203)
(0.164657 -0.672034 0.0785203)
(0.164653 -0.674077 0.0785205)
(0.164699 -0.675271 0.078596)
(0.164701 -0.675441 0.0785957)
(0.16465 -0.67578 0.0785206)
(0.16465 -0.67561 0.0785206)
(0.164651 -0.67544 0.0785206)
(0.164642 -0.679526 0.0785209)
(0.16464 -0.680888 0.078521)
(0.16464 -0.680548 0.078521)
(0.164641 -0.680207 0.0785209)
(0.164725 -0.68157 0.0785704)
(0.16473 -0.682251 0.0785695)
(0.16474 -0.683613 0.0785677)
(0.164742 -0.683954 0.0785673)
(0.164745 -0.684294 0.0785669)
(0.16472 -0.680889 0.0785713)
(0.164722 -0.68123 0.0785709)
(0.164668 -0.672206 0.0786013)
(0.16467 -0.672377 0.078601)
(0.164666 -0.672036 0.0786016)
(0.164663 -0.671696 0.0786022)
(0.164656 -0.672715 0.0785204)
(0.164655 -0.673396 0.0785204)
(0.164654 -0.673567 0.0785204)
(0.16468 -0.673398 0.0785992)
(0.164682 -0.673569 0.0785989)
(0.164684 -0.673739 0.0785986)
(0.164698 -0.675101 0.0785963)
(0.16466 -0.670672 0.0785202)
(0.164659 -0.671013 0.0785203)
(0.164652 -0.670674 0.078604)
(0.164655 -0.671015 0.0786034)
(0.164659 -0.671355 0.0786028)
(0.164659 -0.671353 0.0785203)
(0.164675 -0.672888 0.0786001)
(0.164677 -0.673058 0.0785998)
(0.164671 -0.672547 0.0786007)
(0.164656 -0.672886 0.0785204)
(0.164691 -0.67442 0.0785975)
(0.164689 -0.67425 0.0785977)
(0.164653 -0.674418 0.0785205)
(0.164653 -0.674248 0.0785205)
(0.164694 -0.67476 0.0785969)
(0.164692 -0.67459 0.0785972)
(0.164652 -0.674588 0.0785205)
(0.164649 -0.676121 0.0785206)
(0.16465 -0.67595 0.0785206)
(0.164703 -0.675612 0.0785954)
(0.164705 -0.675782 0.0785951)
(0.164673 -0.672717 0.0786004)
(0.164722 -0.677485 0.0785922)
(0.164725 -0.677825 0.0785916)
(0.164645 -0.678164 0.0785208)
(0.164645 -0.678504 0.0785208)
(0.164728 -0.678166 0.078591)
(0.164732 -0.678506 0.0785905)
(0.164715 -0.676804 0.0785934)
(0.164711 -0.676463 0.0785939)
(0.164648 -0.676802 0.0785207)
(0.164649 -0.676461 0.0785207)
(0.164718 -0.677144 0.0785928)
(0.164647 -0.677142 0.0785207)
(0.164735 -0.678847 0.0785899)
(0.164739 -0.679187 0.0785893)
(0.164642 -0.679867 0.0785209)
(0.164749 -0.680209 0.0785876)
(0.16475 -0.680379 0.0785873)
(0.164752 -0.680549 0.078587)
(0.16463 -0.680891 0.0786238)
(0.164717 -0.680549 0.0785718)
(0.164639 -0.681229 0.078521)
(0.164742 -0.679528 0.0785888)
(0.164678 -0.673228 0.0785995)
(0.164687 -0.674079 0.078598)
(0.164686 -0.673909 0.0785983)
(0.164696 -0.674931 0.0785966)
(0.164732 -0.682592 0.0785691)
(0.164737 -0.683273 0.0785682)
(0.16475 -0.684976 0.078566)
(0.164783 -0.689743 0.0785599)
(0.164793 -0.691105 0.0785582)
(0.164764 -0.687019 0.0785634)
(0.164745 -0.679868 0.0785882)
(0.164802 -0.692467 0.0785565)
(0.164735 -0.682932 0.0785686)
(0.164769 -0.6877 0.0785625)
(0.164774 -0.688381 0.0785616)
(0.164751 -0.692468 0.0786023)
(0.164738 -0.691106 0.0786048)
(0.164845 -0.699278 0.0785484)
(0.164837 -0.697916 0.07855)
(0.164811 -0.693829 0.0785549)
(0.16482 -0.695191 0.0785533)
(0.164764 -0.693831 0.0785999)
(0.164777 -0.695193 0.0785975)
(0.164803 -0.697917 0.0785928)
(0.164828 -0.700641 0.0785882)
(0.164851 -0.703365 0.0785837)
(0.164884 -0.706088 0.0785408)
(0.164877 -0.704726 0.0785423)
(0.164898 -0.708813 0.0785379)
(0.164874 -0.706089 0.0785793)
(0.164896 -0.708814 0.078575)
(0.164936 -0.714262 0.0785668)
(0.164917 -0.711538 0.0785708)
(0.164925 -0.714261 0.0785323)
(0.164912 -0.711537 0.078535)
(0.165005 -0.725159 0.0785517)
(0.164973 -0.71971 0.078559)
(0.164969 -0.725158 0.0785221)
(0.164948 -0.71971 0.078527)
(0.165057 -0.736055 0.0785386)
(0.165033 -0.730607 0.0785449)
(0.165 -0.736055 0.0785134)
(0.164986 -0.730607 0.0785176)
(0.165075 -0.741504 0.0785329)
(0.164988 -0.746952 0.0785458)
(0.16501 -0.741503 0.0785097)
(0.164853 -0.70064 0.0785469)
(-0.154342 -0.409142 0.0956685)
(-0.153692 -0.42176 0.0942764)
(0.163998 0.55 0.07869)
(0.163973 0.55 0.0786966)
(0.164204 0.55 0.0786408)
(0.163793 0.55 0.0787507)
(0.1637 0.55 0.0787706)
(0.163514 0.55 0.078809)
(0.161637 0.55 0.0785394)
(0.16364 0.55 0.0785562)
(0.128801 0.55 0.085541)
(0.132146 0.55 0.0783301)
(0.140333 0.55 0.0833854)
(0.163943 0.55 0.0787056)
(0.163907 0.55 0.0787169)
(0.163861 0.55 0.0787313)
(0.163833 0.55 0.0787411)
(0.163831 0.55 0.0787417)
(0.149436 0.55 0.0816696)
(0.146389 0.55 0.0783579)
(0.151186 0.55 0.0783862)
(0.164742 0.55 0.0785337)
(0.164283 0.55 0.0786235)
(0.164502 0.55 0.0785222)
(0.164369 0.55 0.0786058)
(0.164717 0.55 0.0785138)
(0.164757 0.55 0.0785137)
(0.164783 0.55 0.0785155)
(0.163141 0.55 0.078885)
(0.16165 0.55 0.0791838)
(0.160189 0.55 0.0785225)
(0.158673 0.55 0.0798068)
(0.152714 0.55 0.0810327)
(0.16478 0.55 0.0785151)
(0.164967 0.240693 0.0784985)
(0.164916 0.240693 0.0785007)
(0.16483 0.240693 0.0785049)
(0.164749 0.240693 0.0785092)
(0.164652 0.240693 0.0785147)
(0.133656 0.240693 0.0850731)
(0.164576 0.240693 0.0785191)
(0.164492 0.240693 0.078524)
(0.164399 0.240693 0.0785296)
(0.124897 0.240693 0.0788493)
(0.159634 0.240693 0.0786081)
(0.15535 0.240693 0.0785997)
(0.151998 0.240693 0.0811919)
(0.156296 0.240693 0.080257)
(0.161401 0.240693 0.0791724)
(0.154937 0.240693 0.0785979)
(0.154509 0.240693 0.0785956)
(0.141672 0.240693 0.0785785)
(0.162892 0.240693 0.0788781)
(0.163002 0.240693 0.0785984)
(0.164779 0.240693 0.0785771)
(0.164296 0.240693 0.0785357)
(0.163088 0.240693 0.0785954)
(0.116822 0.472518 0.0790932)
(0.116822 0.481291 0.0790312)
(0.116822 0.503053 0.0873707)
(0.116822 0.476273 0.0872843)
(0.116822 0.53316 0.0785121)
(0.116822 0.540947 0.0876061)
(0.116822 0.361049 0.0882825)
(0.116822 0.367629 0.0791501)
(0.116822 0.372832 0.0880631)
(0.116822 0.372823 0.079181)
(0.116822 0.38207 0.0879127)
(0.116822 0.437937 0.0873485)
(0.116822 0.427161 0.0874133)
(0.116822 0.415185 0.0792868)
(0.116822 0.440169 0.0792472)
(0.116822 0.448704 0.0873047)
(0.116822 0.465796 0.0791348)
(0.116822 0.462017 0.087279)
(0.116822 0.452208 0.0872949)
(0.116822 0.502251 0.0788497)
(0.116822 0.503186 0.0788406)
(0.116822 0.503847 0.0873745)
(0.116822 0.5142 0.0787273)
(0.116822 0.525245 0.0786045)
(0.116822 0.426607 0.0874172)
(0.116822 0.416363 0.0874991)
(0.116822 0.394647 0.0792656)
(0.116822 0.401818 0.087648)
(0.116822 0.394668 0.0877354)
(0.116822 0.390984 0.0792562)
(0.165033 0.672323 0.0785449)
(0.165057 0.677771 0.0785386)
(0.164973 0.661426 0.078559)
(0.165005 0.666874 0.0785517)
(0.164777 0.636908 0.0785975)
(0.164803 0.639632 0.0785928)
(0.164845 0.640993 0.0785484)
(0.164853 0.642356 0.0785469)
(0.164703 0.617327 0.0785954)
(0.164701 0.617157 0.0785957)
(0.164737 0.624989 0.0785682)
(0.164735 0.624648 0.0785686)
(0.16473 0.623967 0.0785695)
(0.164725 0.623286 0.0785704)
(0.164645 0.62022 0.0785208)
(0.164644 0.62056 0.0785208)
(0.164647 0.618858 0.0785207)
(0.164647 0.619198 0.0785207)
(0.164652 0.616644 0.0785205)
(0.164651 0.616815 0.0785206)
(0.164626 0.610006 0.0786082)
(0.164623 0.609665 0.0786088)
(0.164567 0.604557 0.0786181)
(0.164563 0.604217 0.0786187)
(0.164719 0.582421 0.078518)
(0.164714 0.585145 0.0785182)
(0.164692 0.596042 0.078519)
(0.164703 0.590593 0.0785186)
(0.165101 0.698883 0.0785197)
(0.1651 0.698202 0.0785202)
(0.1651 0.69684 0.0785211)
(0.164735 0.574248 0.0785174)
(0.164724 0.579696 0.0785178)
(0.164746 0.568799 0.078517)
(0.164757 0.563351 0.0785165)
(0.164767 0.557902 0.0785162)
(0.164682 0.557902 0.0785447)
(0.164777 0.552454 0.0785231)
(0.164708 0.587869 0.0785184)
(0.164676 0.604215 0.0785196)
(0.164679 0.602853 0.0785195)
(0.164681 0.601491 0.0785194)
(0.164687 0.598766 0.0785192)
(0.164663 0.610685 0.0785201)
(0.164664 0.610344 0.0785201)
(0.164663 0.611026 0.0785201)
(0.164686 0.590594 0.0785372)
(0.164595 0.593318 0.0785635)
(0.164509 0.59945 0.0786276)
(0.164517 0.600131 0.0786263)
(0.164686 0.587869 0.0785378)
(0.164501 0.598768 0.0786288)
(0.164525 0.600812 0.078625)
(0.164532 0.601493 0.0786237)
(0.164578 0.605579 0.0786162)
(0.164574 0.605239 0.0786169)
(0.164559 0.603876 0.0786193)
(0.16454 0.602174 0.0786225)
(0.164589 0.606601 0.0786144)
(0.164586 0.60626 0.078615)
(0.164548 0.602855 0.0786212)
(0.164593 0.606941 0.0786138)
(0.164601 0.607622 0.0786125)
(0.164597 0.607282 0.0786131)
(0.164667 0.608642 0.07852)
(0.164668 0.608301 0.0785199)
(0.164612 0.608644 0.0786107)
(0.164615 0.608984 0.0786101)
(0.164667 0.608982 0.07852)
(0.164666 0.609323 0.07852)
(0.164619 0.609325 0.0786095)
(0.164662 0.611366 0.0785201)
(0.164641 0.611368 0.0786058)
(0.164637 0.611027 0.0786064)
(0.164661 0.611707 0.0785202)
(0.164645 0.611709 0.0786052)
(0.164665 0.609663 0.07852)
(0.164665 0.610004 0.0785201)
(0.164634 0.610687 0.078607)
(0.16463 0.610346 0.0786076)
(0.164608 0.608303 0.0786113)
(0.164604 0.607963 0.0786119)
(0.164652 0.61239 0.078604)
(0.164648 0.612049 0.0786046)
(0.164555 0.603536 0.07862)
(0.164571 0.604898 0.0786175)
(0.164582 0.60592 0.0786156)
(0.164673 0.605577 0.0785197)
(0.164671 0.606939 0.0785198)
(0.164669 0.60762 0.0785199)
(0.164658 0.613409 0.0785203)
(0.164659 0.613069 0.0785203)
(0.164655 0.614942 0.0785204)
(0.164655 0.614771 0.0785204)
(0.164656 0.614431 0.0785204)
(0.164656 0.614601 0.0785204)
(0.164678 0.614944 0.0785995)
(0.164677 0.614773 0.0785998)
(0.164657 0.61375 0.0785203)
(0.164652 0.616304 0.0785205)
(0.164653 0.616133 0.0785205)
(0.164653 0.615793 0.0785205)
(0.164653 0.615963 0.0785205)
(0.164692 0.616306 0.0785972)
(0.164691 0.616135 0.0785975)
(0.164652 0.616474 0.0785205)
(0.164655 0.615112 0.0785204)
(0.164649 0.618177 0.0785207)
(0.164649 0.617836 0.0785206)
(0.164648 0.618517 0.0785207)
(0.164717 0.622264 0.0785718)
(0.16472 0.622605 0.0785713)
(0.16465 0.617496 0.0785206)
(0.16465 0.617666 0.0785206)
(0.164711 0.618179 0.0785939)
(0.164708 0.617838 0.0785945)
(0.16474 0.625329 0.0785677)
(0.164722 0.622945 0.0785709)
(0.164657 0.61392 0.0785203)
(0.164657 0.61409 0.0785204)
(0.164673 0.614433 0.0786004)
(0.164671 0.614263 0.0786007)
(0.164659 0.612728 0.0785203)
(0.164666 0.613752 0.0786016)
(0.164663 0.613411 0.0786022)
(0.164654 0.615282 0.0785204)
(0.164654 0.615452 0.0785205)
(0.164687 0.615795 0.078598)
(0.164686 0.615625 0.0785983)
(0.164698 0.616816 0.0785963)
(0.164696 0.616646 0.0785966)
(0.164694 0.616476 0.0785969)
(0.16468 0.615114 0.0785992)
(0.164699 0.616987 0.078596)
(0.164651 0.616985 0.0785206)
(0.164689 0.615965 0.0785977)
(0.164654 0.615623 0.0785205)
(0.164651 0.617155 0.0785206)
(0.16465 0.617325 0.0785206)
(0.164706 0.617668 0.0785948)
(0.164705 0.617497 0.0785951)
(0.164655 0.61273 0.0786034)
(0.164661 0.612047 0.0785202)
(0.16466 0.612388 0.0785202)
(0.164659 0.613071 0.0786028)
(0.16467 0.614092 0.078601)
(0.164668 0.613922 0.0786013)
(0.164715 0.618519 0.0785934)
(0.164722 0.6192 0.0785922)
(0.164718 0.61886 0.0785928)
(0.164725 0.619541 0.0785916)
(0.164646 0.619539 0.0785208)
(0.164645 0.619879 0.0785208)
(0.164735 0.620562 0.0785899)
(0.164732 0.620222 0.0785905)
(0.164643 0.620901 0.0785209)
(0.164739 0.620903 0.0785893)
(0.164742 0.621243 0.0785888)
(0.164642 0.621242 0.0785209)
(0.164641 0.621923 0.0785209)
(0.16464 0.622263 0.078521)
(0.16463 0.622606 0.0786238)
(0.164752 0.622265 0.078587)
(0.164642 0.621582 0.0785209)
(0.16475 0.622095 0.0785873)
(0.164728 0.619881 0.078591)
(0.164684 0.615454 0.0785986)
(0.164682 0.615284 0.0785989)
(0.164675 0.614603 0.0786001)
(0.164656 0.614261 0.0785204)
(0.164732 0.624307 0.0785691)
(0.16475 0.626691 0.078566)
(0.164745 0.62601 0.0785669)
(0.164755 0.627372 0.0785651)
(0.164769 0.629415 0.0785625)
(0.164764 0.628734 0.0785634)
(0.164793 0.632821 0.0785582)
(0.164783 0.631458 0.0785599)
(0.164749 0.621924 0.0785876)
(0.164745 0.621584 0.0785882)
(0.164802 0.634183 0.0785565)
(0.164742 0.62567 0.0785673)
(0.16476 0.628053 0.0785642)
(0.16482 0.636907 0.0785533)
(0.164811 0.635545 0.0785549)
(0.164877 0.646442 0.0785423)
(0.164869 0.64508 0.0785438)
(0.164837 0.639631 0.07855)
(0.164828 0.642357 0.0785882)
(0.164884 0.647804 0.0785408)
(0.164898 0.650528 0.0785379)
(0.164912 0.653252 0.078535)
(0.164874 0.647805 0.0785793)
(0.164851 0.645081 0.0785837)
(0.164861 0.643718 0.0785453)
(0.164896 0.650529 0.078575)
(0.164917 0.653253 0.0785708)
(0.164936 0.655978 0.0785668)
(0.164948 0.661425 0.078527)
(0.164969 0.666874 0.0785221)
(0.164986 0.672322 0.0785176)
(0.165 0.677771 0.0785134)
(0.164945 0.688668 0.0785089)
(0.165019 0.694116 0.0785034)
(0.165097 0.694116 0.0785232)
(0.164988 0.688668 0.0785458)
(0.165101 0.699224 0.0785195)
(0.165075 0.683219 0.0785329)
(0.16501 0.683219 0.0785097)
(0.164925 0.655977 0.0785323)
(0.164764 0.635546 0.0785999)
(0.164774 0.630096 0.0785616)
(-0.154342 0.350858 0.0956685)
(-0.153692 0.363476 0.0942764)
(-0.14022 0.560683 0.0875287)
(-0.139273 0.566947 0.0875464)
(-0.141186 0.554311 0.0876004)
(0.16464 0.622604 0.078521)
(0.164751 0.634184 0.0786023)
(-0.53 -0.0840405 0.00215593)
(-0.53 -0.0843553 0.00293517)
(-0.53 0.0261572 0.0464111)
(-0.53 0.0263247 0.0459778)
(-0.53 0.0251634 0.0487975)
(-0.53 0.0252366 0.0486312)
(-0.53 0.0255206 0.0479728)
(-0.53 0.0265765 0.0453065)
(-0.53 0.0268203 0.0446322)
(-0.53 0.0270461 0.0439837)
(-0.53 -0.0842012 0.047016)
(-0.53 -0.0841637 0.0471088)
(-0.53 0.0257967 0.0473111)
(-0.53 0.0260647 0.046646)
(-0.53 -0.0831498 0.0494606)
(-0.53 -0.0830244 0.0497333)
(-0.53 -0.0573584 0.077029)
(-0.53 -0.0570233 0.0772086)
(-0.53 0.0190055 -0.00996757)
(-0.53 0.018887 -0.0101311)
(-0.53 0.0181523 -0.0111201)
(-0.53 0.00619675 -0.0229346)
(-0.53 0.00592023 -0.0231381)
(-0.53 -0.0848829 0.00431866)
(-0.53 -0.0849652 0.00454423)
(-0.53 -0.0853758 0.00571488)
(-0.53 -0.085786 0.00697018)
(-0.53 -0.0858338 0.00712295)
(-0.53 -0.0860496 0.00783116)
(-0.53 -0.0862565 0.00854201)
(-0.53 -0.0864546 0.00925538)
(-0.53 -0.0865014 0.00942927)
(-0.53 -0.0866437 0.00997116)
(-0.53 -0.0839197 0.0477008)
(-0.53 -0.0833313 0.0490595)
(-0.53 -0.0479698 0.0810975)
(-0.53 -0.0474947 0.0812541)
(-0.53 -0.0467892 0.0814785)
(-0.53 -0.0460809 0.0816941)
(-0.53 -0.045524 0.0818569)
(-0.53 -0.04537 0.0819009)
(-0.53 -0.0446566 0.0820988)
(-0.53 -0.0100585 0.0810111)
(-0.53 -0.0095429 0.0808335)
(-0.53 -0.0081951 0.0803439)
(-0.53 0.00163521 0.0755623)
(-0.53 0.00208309 0.0752882)
(-0.53 0.0201807 0.0578442)
(-0.53 0.020449 0.0574404)
(-0.53 0.0212231 0.0562333)
(-0.53 0.021573 0.055666)
(-0.53 0.0281103 0.0405291)
(-0.53 0.0282963 0.0398367)
(-0.53 0.0278286 0.0415199)
(-0.53 0.0284739 0.039142)
(-0.53 0.0285031 0.0390244)
(-0.53 0.0288038 0.0377465)
(-0.53 0.0295232 0.0339571)
(-0.53 0.0295902 0.0335179)
(-0.53 0.029784 0.0320971)
(-0.53 0.03012 0.0210701)
(-0.53 0.030092 0.0206469)
(-0.53 0.0299748 0.0192177)
(-0.53 0.0299023 0.0184942)
(-0.53 0.0298232 0.0177918)
(-0.53 0.0296372 0.0163699)
(-0.53 0.0295726 0.0159303)
(-0.53 0.028874 0.012137)
(-0.53 0.0285802 0.0108575)
(-0.53 0.0291316 0.0133831)
(-0.53 0.0217414 -0.00582186)
(-0.53 0.0213947 -0.00639108)
(-0.53 -0.0863446 0.0407107)
(-0.53 -0.0861416 0.0414226)